Test_Network/condensed/network_5/Feeder_5/Lines.txt
New Line.LINE1 Bus1=1 Bus2=2 phases=3 Linecode=.1 Length=0.49341 Units=m
New Line.LINE2 Bus1=2 Bus2=3 phases=3 Linecode=.1 Length=0.050922 Units=m
New Line.LINE3 Bus1=3 Bus2=4 phases=3 Linecode=.1 Length=0.042059 Units=m
New Line.LINE4 Bus1=4 Bus2=5 phases=3 Linecode=.1 Length=0.039698 Units=m
New Line.LINE5 Bus1=5 Bus2=6 phases=3 Linecode=.1 Length=0.052802 Units=m
New Line.LINE6 Bus1=6 Bus2=7 phases=3 Linecode=.1 Length=0.046518 Units=m
New Line.LINE7 Bus1=7 Bus2=8 phases=3 Linecode=.1 Length=0.043325 Units=m
New Line.LINE8 Bus1=8 Bus2=9 phases=3 Linecode=.1 Length=0.056437 Units=m
New Line.LINE9 Bus1=9 Bus2=10 phases=3 Linecode=.1 Length=0.067895 Units=m
New Line.LINE10 Bus1=10 Bus2=11 phases=3 Linecode=.1 Length=1.4959 Units=m
New Line.LINE11 Bus1=11 Bus2=12 phases=3 Linecode=.1 Length=0.54111 Units=m
New Line.LINE12 Bus1=12 Bus2=13 phases=3 Linecode=.1 Length=2.6862 Units=m
New Line.LINE13 Bus1=13 Bus2=14 phases=3 Linecode=.1 Length=2.3105 Units=m
New Line.LINE14 Bus1=14 Bus2=15 phases=3 Linecode=.1 Length=0.21766 Units=m
New Line.LINE15 Bus1=15 Bus2=16 phases=3 Linecode=.1 Length=0.23355 Units=m
New Line.LINE16 Bus1=16 Bus2=17 phases=3 Linecode=.1 Length=0.13042 Units=m
New Line.LINE17 Bus1=17 Bus2=18 phases=3 Linecode=.1 Length=0.077795 Units=m
New Line.LINE18 Bus1=18 Bus2=19 phases=3 Linecode=.1 Length=0.10469 Units=m
New Line.LINE19 Bus1=19 Bus2=20 phases=3 Linecode=.1 Length=0.12897 Units=m
New Line.LINE20 Bus1=20 Bus2=21 phases=3 Linecode=.1 Length=0.090686 Units=m
New Line.LINE21 Bus1=21 Bus2=22 phases=3 Linecode=.1 Length=0.11526 Units=m
New Line.LINE22 Bus1=22 Bus2=23 phases=3 Linecode=.1 Length=0.071561 Units=m
New Line.LINE23 Bus1=23 Bus2=24 phases=3 Linecode=.1 Length=0.09717 Units=m
New Line.LINE24 Bus1=24 Bus2=25 phases=3 Linecode=.1 Length=0.37138 Units=m
New Line.LINE25 Bus1=25 Bus2=26 phases=3 Linecode=5c_.06 Length=1.1758 Units=m
New Line.LINE26 Bus1=26 Bus2=27 phases=3 Linecode=5c_.06 Length=0.45705 Units=m
New Line.LINE27 Bus1=27 Bus2=28 phases=3 Linecode=5c_.06 Length=1.3653 Units=m
New Line.LINE29 Bus1=28 Bus2=30 phases=3 Linecode=5c_.06 Length=0.24772 Units=m
New Line.LINE31 Bus1=30 Bus2=32 phases=3 Linecode=5c_.06 Length=0.26683 Units=m
New Line.LINE33 Bus1=32 Bus2=34 phases=3 Linecode=5c_.06 Length=13.1236 Units=m
New Line.LINE35 Bus1=34 Bus2=36 phases=3 Linecode=5c_.06 Length=6.9223 Units=m
New Line.LINE37 Bus1=36 Bus2=38 phases=3 Linecode=5c_.06 Length=0.87932 Units=m
New Line.LINE40 Bus1=38 Bus2=41 phases=3 Linecode=5c_.06 Length=1.919 Units=m
New Line.LINE44 Bus1=41 Bus2=45 phases=3 Linecode=5c_.06 Length=6.338 Units=m
New Line.LINE119 Bus1=111 Bus2=120 phases=3 Linecode=5c_.06 Length=0.2691 Units=m
New Line.LINE128 Bus1=120 Bus2=129 phases=3 Linecode=5c_.06 Length=0.72918 Units=m
New Line.LINE138 Bus1=129 Bus2=139 phases=3 Linecode=5c_.06 Length=0.45967 Units=m
New Line.LINE149 Bus1=139 Bus2=150 phases=3 Linecode=5c_.06 Length=0.59203 Units=m
New Line.LINE160 Bus1=150 Bus2=161 phases=3 Linecode=5c_.06 Length=0.50774 Units=m
New Line.LINE169 Bus1=161 Bus2=170 phases=3 Linecode=5c_.06 Length=0.45618 Units=m
New Line.LINE177 Bus1=170 Bus2=178 phases=3 Linecode=5c_.06 Length=0.39925 Units=m
New Line.LINE185 Bus1=178 Bus2=186 phases=3 Linecode=5c_.06 Length=0.14318 Units=m
New Line.LINE193 Bus1=186 Bus2=194 phases=3 Linecode=5c_.06 Length=0.24413 Units=m
New Line.LINE201 Bus1=194 Bus2=202 phases=3 Linecode=5c_.06 Length=0.35384 Units=m
New Line.LINE210 Bus1=202 Bus2=211 phases=3 Linecode=5c_.06 Length=0.82976 Units=m
New Line.LINE219 Bus1=211 Bus2=220 phases=3 Linecode=4c_.06 Length=10.3121 Units=m
New Line.LINE229 Bus1=220 Bus2=230 phases=3 Linecode=4c_.06 Length=4.5031 Units=m
New Line.LINE240 Bus1=230 Bus2=241 phases=3 Linecode=4c_.06 Length=4.1267 Units=m
New Line.LINE252 Bus1=241 Bus2=253 phases=3 Linecode=4c_.06 Length=4.4263 Units=m
New Line.LINE263 Bus1=253 Bus2=264 phases=3 Linecode=4c_.06 Length=5.1279 Units=m
New Line.LINE292 Bus1=285 Bus2=293 phases=3 Linecode=4c_.06 Length=11.9323 Units=m
New Line.LINE293 Bus1=285 Bus2=294 phases=3 Linecode=3c_95_SAC_XC Length=0.18682 Units=m
New Line.LINE301 Bus1=293 Bus2=302 phases=3 Linecode=4c_.06 Length=4.9681 Units=m
New Line.LINE304 Bus1=294 Bus2=305 phases=3 Linecode=3c_95_SAC_XC Length=0.05099 Units=m
New Line.LINE311 Bus1=302 Bus2=312 phases=3 Linecode=4c_.06 Length=2.7286 Units=m
New Line.LINE315 Bus1=305 Bus2=316 phases=3 Linecode=3c_95_SAC_XC Length=0.039999 Units=m
New Line.LINE323 Bus1=312 Bus2=324 phases=3 Linecode=4c_.06 Length=3.0986 Units=m
New Line.LINE325 Bus1=316 Bus2=326 phases=3 Linecode=3c_95_SAC_XC Length=0.041232 Units=m
New Line.LINE335 Bus1=324 Bus2=336 phases=3 Linecode=2c_.0145 Length=7.4415 Units=m
New Line.LINE337 Bus1=326 Bus2=338 phases=3 Linecode=3c_95_SAC_XC Length=0.053852 Units=m
New Line.LINE346 Bus1=336 Bus2=347 phases=3 Linecode=2c_.0145 Length=4.4724 Units=m
New Line.LINE347 Bus1=338 Bus2=348 phases=3 Linecode=3c_95_SAC_XC Length=0.036057 Units=m
New Line.LINE355 Bus1=345 Bus2=356 phases=3 Linecode=4c_.06 Length=20.6379 Units=m
New Line.LINE357 Bus1=348 Bus2=358 phases=3 Linecode=3c_95_SAC_XC Length=0.092195 Units=m
New Line.LINE359 Bus1=351 Bus2=360 phases=3 Linecode=25_SAC_PC Length=6.8092 Units=m
New Line.LINE371 Bus1=358 Bus2=372 phases=3 Linecode=3c_95_SAC_XC Length=25.6299 Units=m
New Line.LINE376 Bus1=364 Bus2=377 phases=3 Linecode=35_SAC_XC Length=3.9189 Units=m
New Line.LINE386 Bus1=372 Bus2=387 phases=3 Linecode=35_SAC_XC Length=0.44273 Units=m
New Line.LINE398 Bus1=382 Bus2=399 phases=3 Linecode=4c_.06 Length=0.5 Units=m
New Line.LINE401 Bus1=387 Bus2=402 phases=3 Linecode=35_SAC_XC Length=0.14 Units=m
New Line.LINE415 Bus1=399 Bus2=416 phases=3 Linecode=16_PSC Length=0.29203 Units=m
New Line.LINE418 Bus1=402 Bus2=419 phases=3 Linecode=35_SAC_XC Length=0.10198 Units=m
New Line.LINE430 Bus1=416 Bus2=431 phases=3 Linecode=16_PSC Length=0.2508 Units=m
New Line.LINE433 Bus1=419 Bus2=434 phases=3 Linecode=35_SAC_XC Length=0.14866 Units=m
New Line.LINE445 Bus1=431 Bus2=446 phases=3 Linecode=16_PSC Length=0.35355 Units=m
New Line.LINE448 Bus1=434 Bus2=449 phases=3 Linecode=35_SAC_XC Length=0.39812 Units=m
New Line.LINE460 Bus1=446 Bus2=461 phases=3 Linecode=16_PSC Length=0.24413 Units=m
New Line.LINE474 Bus1=458 Bus2=475 phases=3 Linecode=4c_.06 Length=5.6644 Units=m
New Line.LINE477 Bus1=461 Bus2=478 phases=3 Linecode=16_PSC Length=0.98082 Units=m
New Line.LINE492 Bus1=475 Bus2=493 phases=3 Linecode=4c_.06 Length=10.3465 Units=m
New Line.LINE496 Bus1=478 Bus2=497 phases=3 Linecode=16_PSC Length=2.1865 Units=m
New Line.LINE512 Bus1=493 Bus2=513 phases=3 Linecode=4c_.06 Length=7.6963 Units=m
New Line.LINE513 Bus1=493 Bus2=514 phases=3 Linecode=4c_.06 Length=3.8552 Units=m
New Line.LINE516 Bus1=497 Bus2=517 phases=3 Linecode=16_PSC Length=3.984 Units=m
New Line.LINE533 Bus1=513 Bus2=534 phases=3 Linecode=4c_.06 Length=7.9429 Units=m
New Line.LINE534 Bus1=513 Bus2=535 phases=3 Linecode=4c_.06 Length=14.7834 Units=m
New Line.LINE535 Bus1=514 Bus2=536 phases=3 Linecode=25_SAC_XC Length=0.35825 Units=m
New Line.LINE537 Bus1=517 Bus2=538 phases=3 Linecode=16_PSC Length=6.4052 Units=m
New Line.LINE554 Bus1=534 Bus2=555 phases=3 Linecode=2c_.0145 Length=0.32845 Units=m
New Line.LINE557 Bus1=535 Bus2=558 phases=3 Linecode=4c_.06 Length=9.914 Units=m
New Line.LINE558 Bus1=536 Bus2=559 phases=3 Linecode=25_SAC_XC Length=0.15811 Units=m
New Line.LINE575 Bus1=555 Bus2=576 phases=3 Linecode=2c_.0145 Length=0.32 Units=m
New Line.LINE579 Bus1=558 Bus2=580 phases=3 Linecode=4c_.06 Length=5.8846 Units=m
New Line.LINE582 Bus1=559 Bus2=583 phases=3 Linecode=25_SAC_XC Length=0.21 Units=m
New Line.LINE599 Bus1=576 Bus2=600 phases=3 Linecode=2c_.0145 Length=0.38275 Units=m
New Line.LINE603 Bus1=580 Bus2=604 phases=3 Linecode=4c_.06 Length=11.3694 Units=m
New Line.LINE604 Bus1=580 Bus2=605 phases=3 Linecode=4c_.06 Length=16.2218 Units=m
New Line.LINE606 Bus1=583 Bus2=607 phases=3 Linecode=25_SAC_XC Length=0.22136 Units=m
New Line.LINE622 Bus1=600 Bus2=623 phases=3 Linecode=2c_.0145 Length=0.37537 Units=m
New Line.LINE628 Bus1=605 Bus2=629 phases=3 Linecode=25_SAC_XC Length=0.29247 Units=m
New Line.LINE631 Bus1=607 Bus2=632 phases=3 Linecode=25_SAC_XC Length=0.27203 Units=m
New Line.LINE645 Bus1=623 Bus2=646 phases=3 Linecode=2c_.0145 Length=5.445 Units=m
New Line.LINE651 Bus1=629 Bus2=652 phases=3 Linecode=25_SAC_XC Length=0.22472 Units=m
New Line.LINE653 Bus1=632 Bus2=654 phases=3 Linecode=25_SAC_XC Length=5.8956 Units=m
New Line.LINE666 Bus1=646 Bus2=667 phases=3 Linecode=2c_.0145 Length=5.6196 Units=m
New Line.LINE671 Bus1=650 Bus2=672 phases=3 Linecode=4c_.06 Length=4.4303 Units=m
New Line.LINE672 Bus1=650 Bus2=673 phases=3 Linecode=4c_.06 Length=1.8822 Units=m
New Line.LINE673 Bus1=652 Bus2=674 phases=3 Linecode=25_SAC_XC Length=0.1456 Units=m
New Line.LINE675 Bus1=654 Bus2=676 phases=3 Linecode=25_SAC_XC Length=5.3545 Units=m
New Line.LINE691 Bus1=672 Bus2=692 phases=3 Linecode=4c_.06 Length=13.2531 Units=m
New Line.LINE693 Bus1=672 Bus2=694 phases=3 Linecode=4c_.06 Length=4.6043 Units=m
New Line.LINE694 Bus1=673 Bus2=695 phases=3 Linecode=2c_.0145 Length=0.35888 Units=m
New Line.LINE695 Bus1=674 Bus2=696 phases=3 Linecode=25_SAC_XC Length=0.21 Units=m
New Line.LINE711 Bus1=692 Bus2=712 phases=3 Linecode=4c_.06 Length=2.1365 Units=m
New Line.LINE713 Bus1=694 Bus2=714 phases=3 Linecode=25_SAC_XC Length=3.8741 Units=m
New Line.LINE714 Bus1=695 Bus2=715 phases=3 Linecode=2c_.0145 Length=0.10198 Units=m
New Line.LINE715 Bus1=696 Bus2=716 phases=3 Linecode=25_SAC_XC Length=0.22361 Units=m
New Line.LINE728 Bus1=712 Bus2=729 phases=3 Linecode=2c_.0145 Length=7.1795 Units=m
New Line.LINE730 Bus1=714 Bus2=731 phases=3 Linecode=25_SAC_XC Length=2.9692 Units=m
New Line.LINE731 Bus1=715 Bus2=732 phases=3 Linecode=2c_.0145 Length=0.10198 Units=m
New Line.LINE732 Bus1=716 Bus2=733 phases=3 Linecode=25_SAC_XC Length=0.32558 Units=m
New Line.LINE743 Bus1=729 Bus2=744 phases=3 Linecode=2c_.0145 Length=5.1264 Units=m
New Line.LINE746 Bus1=731 Bus2=747 phases=3 Linecode=25_SAC_XC Length=4.8322 Units=m
New Line.LINE747 Bus1=732 Bus2=748 phases=3 Linecode=2c_.0145 Length=0.13 Units=m
New Line.LINE748 Bus1=733 Bus2=749 phases=3 Linecode=25_SAC_XC Length=7.2247 Units=m
New Line.LINE757 Bus1=748 Bus2=758 phases=3 Linecode=2c_.0145 Length=0.32802 Units=m
New Line.LINE758 Bus1=749 Bus2=759 phases=3 Linecode=25_SAC_XC Length=4.2031 Units=m
New Line.LINE767 Bus1=758 Bus2=768 phases=3 Linecode=2c_.0145 Length=6.0907 Units=m
New Line.LINE775 Bus1=768 Bus2=776 phases=3 Linecode=2c_.0145 Length=4.8119 Units=m
New Line.LINE778 Bus1=771 Bus2=779 phases=3 Linecode=35_SAC_XC Length=1.6954 Units=m
New Line.LINE779 Bus1=771 Bus2=780 phases=3 Linecode=35_SAC_XC Length=6.505 Units=m
New Line.LINE917 Bus1=912 Bus2=918 phases=3 Linecode=35_SAC_XC Length=7.106 Units=m
New Line.LINE918 Bus1=912 Bus2=919 phases=3 Linecode=35_SAC_XC Length=2.8241 Units=m
New Line.LINE939 Bus1=935 Bus2=940 phases=3 Linecode=25_SAC_PC Length=3.6261 Units=m
New Line.LINE966 Bus1=963 Bus2=967 phases=3 Linecode=25_SAC_PC Length=5.804 Units=m
New Line.LINE981 Bus1=977 Bus2=982 phases=3 Linecode=3c_95_SAC_ASN Length=2.7518 Units=m
New Line.LINE987 Bus1=982 Bus2=988 phases=3 Linecode=3c_95_SAC_ASN Length=2.6277 Units=m
New Line.LINE993 Bus1=988 Bus2=994 phases=3 Linecode=25_SAC_PC Length=0.49244 Units=m
New Line.LINE1000 Bus1=994 Bus2=1001 phases=3 Linecode=25_SAC_PC Length=0.064031 Units=m
New Line.LINE1007 Bus1=1001 Bus2=1008 phases=3 Linecode=25_SAC_PC Length=0.10296 Units=m
New Line.LINE1014 Bus1=1008 Bus2=1015 phases=3 Linecode=25_SAC_PC Length=0.28178 Units=m
New Line.LINE1018 Bus1=1012 Bus2=1019 phases=3 Linecode=25_SAC_PC Length=2.5216 Units=m
New Line.LINE1022 Bus1=1015 Bus2=1023 phases=3 Linecode=25_SAC_PC Length=0.25942 Units=m
New Line.LINE1029 Bus1=1023 Bus2=1030 phases=3 Linecode=25_SAC_PC Length=0.17804 Units=m
New Line.LINE1035 Bus1=1030 Bus2=1036 phases=3 Linecode=25_SAC_PC Length=0.13454 Units=m
New Line.LINE1041 Bus1=1036 Bus2=1042 phases=3 Linecode=25_SAC_PC Length=0.18028 Units=m
New Line.LINE1047 Bus1=1042 Bus2=1048 phases=3 Linecode=25_SAC_PC Length=0.586 Units=m
New Line.LINE1052 Bus1=1048 Bus2=1053 phases=3 Linecode=25_SAC_PC Length=0.46819 Units=m
New Line.LINE1057 Bus1=1053 Bus2=1058 phases=3 Linecode=25_SAC_PC Length=0.54708 Units=m
New Line.LINE1062 Bus1=1058 Bus2=1063 phases=3 Linecode=25_SAC_PC Length=4.0752 Units=m
New Line.LINE1067 Bus1=1063 Bus2=1068 phases=3 Linecode=25_SAC_PC Length=3.1894 Units=m
New Line.LINE1071 Bus1=1068 Bus2=1072 phases=3 Linecode=25_SAC_PC Length=0.33956 Units=m
New Line.LINE1075 Bus1=1072 Bus2=1076 phases=3 Linecode=25_SAC_PC Length=0.37122 Units=m
New Line.LINE1079 Bus1=1076 Bus2=1080 phases=3 Linecode=25_SAC_PC Length=0.35014 Units=m
New Line.LINE1083 Bus1=1080 Bus2=1084 phases=3 Linecode=25_SAC_PC Length=0.31257 Units=m
New Line.LINE1087 Bus1=1084 Bus2=1088 phases=3 Linecode=25_SAC_PC Length=0.77466 Units=m
New Line.LINE1090 Bus1=1087 Bus2=1091 phases=3 Linecode=25_SAC_PC Length=4.8799 Units=m
New Line.LINE1092 Bus1=1088 Bus2=1093 phases=3 Linecode=25_SAC_PC Length=2.5744 Units=m
New Line.LINE1096 Bus1=1093 Bus2=1097 phases=3 Linecode=25_SAC_PC Length=0.94372 Units=m
New Line.LINE1100 Bus1=1097 Bus2=1101 phases=3 Linecode=25_SAC_PC Length=1.3231 Units=m
New Line.LINE1103 Bus1=1101 Bus2=1104 phases=3 Linecode=25_SAC_PC Length=0.20616 Units=m
New Line.LINE1106 Bus1=1104 Bus2=1107 phases=3 Linecode=25_SAC_PC Length=1.128 Units=m
New Line.LINE1109 Bus1=1107 Bus2=1110 phases=3 Linecode=25_SAC_PC Length=0.20518 Units=m
New Line.LINE1111 Bus1=1110 Bus2=1112 phases=3 Linecode=25_SAC_PC Length=0.13038 Units=m
New Line.LINE1113 Bus1=1112 Bus2=1114 phases=3 Linecode=25_SAC_PC Length=0.15653 Units=m
New Line.LINE1115 Bus1=1114 Bus2=1116 phases=3 Linecode=25_SAC_PC Length=0.19235 Units=m
New Line.LINE1117 Bus1=1116 Bus2=1118 phases=3 Linecode=25_SAC_PC Length=0.11 Units=m
New Line.LINE1119 Bus1=1118 Bus2=1120 phases=3 Linecode=25_SAC_PC Length=0.17263 Units=m
New Line.LINE1121 Bus1=1120 Bus2=1122 phases=3 Linecode=25_SAC_PC Length=0.1118 Units=m
New Line.LINE1123 Bus1=1122 Bus2=1124 phases=3 Linecode=25_SAC_PC Length=0.24207 Units=m
New Line.LINE1125 Bus1=1124 Bus2=1126 phases=3 Linecode=25_SAC_PC Length=0.24042 Units=m
New Line.LINE1127 Bus1=1126 Bus2=1128 phases=3 Linecode=25_SAC_PC Length=0.17692 Units=m
New Line.LINE1129 Bus1=1128 Bus2=1130 phases=3 Linecode=25_SAC_PC Length=0.3821 Units=m
New Line.LINE1131 Bus1=1130 Bus2=1132 phases=3 Linecode=25_SAC_PC Length=3.1341 Units=m
New Line.LINECmpd_0 Bus1=935 Bus2=1108 phases=3 Linecode=25_SAC_PC Length=26.753827 Units=m
New Line.LINECmpd_1 Bus1=794 Bus2=963 phases=3 Linecode=25_SAC_PC Length=15.067694 Units=m
New Line.LINECmpd_2 Bus1=449 Bus2=912 phases=3 Linecode=35_SAC_XC Length=22.497352 Units=m
New Line.LINECmpd_3 Bus1=729 Bus2=820 phases=3 Linecode=2c_.0145 Length=9.763791 Units=m
New Line.LINECmpd_4 Bus1=1087 Bus2=1160 phases=3 Linecode=25_SAC_PC Length=31.996854 Units=m
New Line.LINECmpd_5 Bus1=54 Bus2=724 phases=3 Linecode=3c_95_SAC_ASN Length=59.594266 Units=m
New Line.LINECmpd_6 Bus1=535 Bus2=688 phases=3 Linecode=25_SAC_XC Length=11.91137 Units=m
New Line.LINECmpd_7 Bus1=794 Bus2=977 phases=3 Linecode=3c_95_SAC_ASN Length=28.37957 Units=m
New Line.LINECmpd_8 Bus1=604 Bus2=743 phases=3 Linecode=2c_.0145 Length=13.01111 Units=m
New Line.LINECmpd_9 Bus1=93 Bus2=351 phases=3 Linecode=25_SAC_PC Length=22.454487 Units=m
New Line.LINECmpd_10 Bus1=449 Bus2=771 phases=3 Linecode=35_SAC_XC Length=19.083766 Units=m
New Line.LINECmpd_11 Bus1=111 Bus2=663 phases=3 Linecode=2c_25 Length=27.037378 Units=m
New Line.LINECmpd_12 Bus1=54 Bus2=93 phases=3 Linecode=5c_.06 Length=34.49329 Units=m
New Line.LINECmpd_13 Bus1=111 Bus2=364 phases=3 Linecode=35_SAC_XC Length=13.147227 Units=m
New Line.LINECmpd_14 Bus1=1130 Bus2=1173 phases=3 Linecode=25_SAC_PC Length=19.89626 Units=m
New Line.LINECmpd_15 Bus1=724 Bus2=935 phases=3 Linecode=25_SAC_PC Length=16.657489 Units=m
New Line.LINECmpd_16 Bus1=977 Bus2=1087 phases=3 Linecode=25_SAC_PC Length=9.232757 Units=m
New Line.LINECmpd_17 Bus1=963 Bus2=1066 phases=3 Linecode=25_SAC_PC Length=18.226338 Units=m
New Line.LINECmpd_18 Bus1=558 Bus2=734 phases=3 Linecode=2c_.0145 Length=12.90212 Units=m
New Line.LINECmpd_19 Bus1=794 Bus2=1012 phases=3 Linecode=25_SAC_PC Length=18.348141 Units=m
New Line.LINECmpd_20 Bus1=345 Bus2=707 phases=3 Linecode=25_SAC_XC Length=13.358792 Units=m
New Line.LINECmpd_21 Bus1=475 Bus2=621 phases=3 Linecode=25_SAC_XC Length=13.40602 Units=m
New Line.LINECmpd_22 Bus1=351 Bus2=615 phases=3 Linecode=25_SAC_PC Length=18.99504 Units=m
New Line.LINECmpd_23 Bus1=580 Bus2=742 phases=3 Linecode=25_SAC_XC Length=14.15514 Units=m
New Line.LINECmpd_24 Bus1=93 Bus2=280 phases=3 Linecode=25_SAC_PC Length=16.926191 Units=m
New Line.LINECmpd_25 Bus1=356 Bus2=382 phases=3 Linecode=4c_.06 Length=20.1329 Units=m
New Line.LINECmpd_26 Bus1=356 Bus2=551 phases=3 Linecode=16_PSC Length=13.023648 Units=m
New Line.LINECmpd_27 Bus1=977 Bus2=1098 phases=3 Linecode=25_SAC_PC Length=18.74819 Units=m
New Line.LINECmpd_28 Bus1=724 Bus2=794 phases=3 Linecode=3c_95_SAC_ASN Length=9.1749 Units=m
New Line.LINECmpd_29 Bus1=356 Bus2=741 phases=3 Linecode=16_PSC Length=13.911025 Units=m
New Line.LINECmpd_30 Bus1=413 Bus2=458 phases=3 Linecode=4c_.06 Length=11.4925 Units=m
New Line.LINECmpd_31 Bus1=253 Bus2=273 phases=3 Linecode=2c_.0225 Length=11.5166 Units=m
New Line.LINECmpd_32 Bus1=458 Bus2=597 phases=3 Linecode=2c_.0145 Length=13.21824 Units=m
New Line.LINECmpd_33 Bus1=364 Bus2=394 phases=3 Linecode=35_SAC_XC Length=7.7739 Units=m
New Line.LINECmpd_34 Bus1=413 Bus2=516 phases=3 Linecode=16_PSC Length=14.460008 Units=m
New Line.LINECmpd_35 Bus1=45 Bus2=54 phases=3 Linecode=5c_.06 Length=2.96123 Units=m
New Line.LINECmpd_36 Bus1=45 Bus2=53 phases=3 Linecode=2c Length=12.379 Units=m
New Line.LINECmpd_37 Bus1=382 Bus2=413 phases=3 Linecode=4c_.06 Length=3.4535 Units=m
New Line.LINECmpd_38 Bus1=493 Bus2=645 phases=3 Linecode=2c_.0145 Length=12.07834 Units=m
New Line.LINECmpd_39 Bus1=302 Bus2=325 phases=3 Linecode=2c_.0145 Length=14.7443 Units=m
New Line.LINECmpd_40 Bus1=41 Bus2=48 phases=3 Linecode=2c Length=12.5793 Units=m
New Line.LINECmpd_41 Bus1=312 Bus2=345 phases=3 Linecode=4c_.06 Length=11.1643 Units=m
New Line.LINECmpd_42 Bus1=264 Bus2=285 phases=3 Linecode=4c_.06 Length=4.37281 Units=m
New Line.LINECmpd_43 Bus1=93 Bus2=111 phases=3 Linecode=5c_.06 Length=22.7044 Units=m
New Line.LINECmpd_44 Bus1=241 Bus2=262 phases=3 Linecode=2c_.0225 Length=11.6943 Units=m
New Line.LINECmpd_45 Bus1=293 Bus2=315 phases=3 Linecode=2c_.0225 Length=13.6682 Units=m
New Line.LINECmpd_46 Bus1=230 Bus2=251 phases=3 Linecode=2c_.0225 Length=11.8437 Units=m
New Line.LINECmpd_47 Bus1=264 Bus2=284 phases=3 Linecode=2c_.0145 Length=10.4296 Units=m
New Line.LINECmpd_48 Bus1=1012 Bus2=1027 phases=3 Linecode=25_SAC_PC Length=7.7666 Units=m
New Line.LINECmpd_49 Bus1=604 Bus2=650 phases=3 Linecode=4c_.06 Length=25.5481 Units=m
